Version 4
SHEET 1 880 680
WIRE -592 -160 -768 -160
WIRE -176 -160 -592 -160
WIRE -592 -128 -592 -160
WIRE -176 -112 -176 -160
WIRE -592 -16 -592 -48
WIRE -176 16 -176 -32
WIRE -48 16 -176 16
WIRE 80 16 16 16
WIRE 128 16 80 16
WIRE 240 16 208 16
WIRE 352 16 240 16
WIRE -176 32 -176 16
WIRE 352 32 352 16
WIRE 80 64 80 16
WIRE 240 64 240 16
WIRE -720 112 -768 112
WIRE -592 112 -592 64
WIRE -592 112 -640 112
WIRE -512 112 -592 112
WIRE -352 112 -352 80
WIRE -352 112 -448 112
WIRE -224 112 -352 112
WIRE -352 144 -352 112
WIRE -592 160 -592 112
WIRE -1088 208 -1120 208
WIRE -960 208 -1008 208
WIRE -768 208 -768 112
WIRE -768 208 -816 208
WIRE -656 208 -768 208
WIRE -592 304 -592 256
WIRE -752 352 -768 352
WIRE -656 352 -672 352
FLAG -1120 208 0
FLAG 80 128 0
FLAG 240 128 0
FLAG 352 112 0
FLAG -848 -160 0
FLAG -176 128 0
FLAG -592 400 0
FLAG -848 352 0
FLAG -352 224 0
FLAG -352 16 0
SYMBOL voltage -992 208 R90
WINDOW 0 -32 56 VBottom 2
WINDOW 3 32 56 VTop 2
WINDOW 123 0 0 Left 0
WINDOW 39 0 0 Left 0
SYMATTR InstName V1
SYMATTR Value SINE(0 2.25 10MEG)
SYMBOL cap 16 0 R90
WINDOW 0 0 32 VBottom 2
WINDOW 3 32 32 VTop 2
SYMATTR InstName C2
SYMATTR Value .1µ
SYMBOL cap 64 64 R0
SYMATTR InstName C5
SYMATTR Value 200p
SYMBOL ind 112 32 R270
WINDOW 0 32 56 VTop 2
WINDOW 3 5 56 VBottom 2
SYMATTR InstName L3
SYMATTR Value .8µ
SYMBOL cap 224 64 R0
SYMATTR InstName C6
SYMATTR Value 200p
SYMBOL res 336 16 R0
SYMATTR InstName R5
SYMATTR Value 50
SYMBOL cap -896 192 R90
WINDOW 0 0 32 VBottom 2
WINDOW 3 32 32 VTop 2
SYMATTR InstName C7
SYMATTR Value 1n
SYMBOL npn -656 160 R0
SYMATTR InstName Q1
SYMATTR Value 2N2222
SYMBOL res -624 96 R90
WINDOW 0 0 56 VBottom 2
WINDOW 3 32 56 VTop 2
SYMATTR InstName R2
SYMATTR Value 10k
SYMBOL voltage -752 -160 R90
WINDOW 0 -32 56 VBottom 2
WINDOW 3 32 56 VTop 2
WINDOW 123 0 0 Left 0
WINDOW 39 0 0 Left 0
SYMATTR InstName V2
SYMATTR Value 12
SYMBOL cap -448 96 R90
WINDOW 0 0 32 VBottom 2
WINDOW 3 32 32 VTop 2
SYMATTR InstName C1
SYMATTR Value 1n
SYMBOL nmos -224 32 R0
SYMATTR InstName M1
SYMATTR Value IRF510
SYMBOL ind -192 -128 R0
SYMATTR InstName L2
SYMATTR Value .8µ
SYMBOL res -368 128 R0
SYMATTR InstName R1
SYMATTR Value 100k
SYMBOL res -800 192 R90
WINDOW 0 0 56 VBottom 2
WINDOW 3 32 56 VTop 2
SYMATTR InstName R6
SYMATTR Value 50
SYMBOL ind -608 -32 R0
SYMATTR InstName L1
SYMATTR Value 560µ
SYMBOL res -608 -144 R0
SYMATTR InstName R3
SYMATTR Value 50
SYMBOL npn -656 304 R0
SYMATTR InstName Q2
SYMATTR Value 2N2222
SYMBOL voltage -752 352 R90
WINDOW 0 -32 56 VBottom 2
WINDOW 3 32 56 VTop 2
WINDOW 123 0 0 Left 0
WINDOW 39 0 0 Left 0
SYMATTR InstName V4
SYMATTR Value 5
SYMBOL res -656 336 R90
WINDOW 0 0 56 VBottom 2
WINDOW 3 32 56 VTop 2
SYMATTR InstName R4
SYMATTR Value 1k
SYMBOL diode -368 16 R0
SYMATTR InstName D1
TEXT -1136 104 Left 2 !.tran 0 .0001 .000099
TEXT -904 392 Left 2 ;OOK
